Version 4
SHEET 1 1216 756
WIRE -672 -736 -672 -768
WIRE -448 -736 -448 -768
WIRE -784 -528 -912 -528
WIRE -672 -528 -672 -656
WIRE -448 -528 -448 -656
WIRE -560 -480 -608 -480
WIRE -512 -480 -560 -480
WIRE -784 -448 -784 -528
WIRE -784 -448 -800 -448
WIRE -912 -432 -912 -528
WIRE -912 -432 -1008 -432
WIRE -864 -432 -912 -432
WIRE -672 -416 -672 -432
WIRE -672 -416 -800 -416
WIRE -560 -416 -560 -480
WIRE -560 -416 -672 -416
WIRE -1168 -400 -1280 -400
WIRE -672 -400 -672 -416
WIRE -448 -352 -448 -432
WIRE -1280 -304 -1280 -400
WIRE -1264 -304 -1280 -304
WIRE -1168 -288 -1168 -400
WIRE -1168 -288 -1200 -288
WIRE -672 -288 -672 -320
WIRE -672 -288 -1168 -288
WIRE -1424 -272 -1424 -304
WIRE -1264 -272 -1424 -272
WIRE -1424 -240 -1424 -272
WIRE -640 -144 -800 -144
WIRE -448 -128 -448 -272
WIRE -448 -128 -528 -128
WIRE -368 -128 -448 -128
WIRE -528 -96 -528 -128
WIRE -368 -96 -368 -128
WIRE 96 -64 96 -96
WIRE 96 -64 64 -64
WIRE 224 -64 224 -96
WIRE -816 -48 -896 -48
WIRE -736 -32 -736 -80
WIRE 96 -32 96 -64
WIRE -896 -16 -896 -48
WIRE -800 -16 -800 -144
WIRE -768 -16 -800 -16
WIRE 160 -16 160 -48
WIRE 160 -16 128 -16
WIRE -640 0 -640 -144
WIRE -640 0 -704 0
WIRE -528 0 -528 -32
WIRE -528 0 -640 0
WIRE -368 0 -368 -32
WIRE -208 0 -368 0
WIRE -32 0 -208 0
WIRE 128 0 128 -16
WIRE -816 16 -816 -48
WIRE -768 16 -816 16
WIRE -528 32 -528 0
WIRE -368 32 -368 0
WIRE -208 32 -208 0
WIRE 160 32 160 -16
WIRE 224 48 224 16
WIRE 224 48 192 48
WIRE -1440 64 -1440 32
WIRE -1312 64 -1312 32
WIRE -1200 64 -1200 32
WIRE -1104 64 -1104 32
WIRE -992 64 -992 32
WIRE -736 64 -736 32
WIRE -32 64 -64 64
WIRE 192 64 192 48
WIRE 224 96 224 48
WIRE -528 128 -528 96
WIRE -448 128 -528 128
WIRE -368 128 -368 96
WIRE -368 128 -448 128
WIRE -208 128 -208 96
WIRE 320 160 288 160
WIRE 352 160 320 160
WIRE 464 160 432 160
WIRE 480 160 464 160
WIRE 576 160 560 160
WIRE 688 160 576 160
WIRE -1440 176 -1440 144
WIRE -1312 176 -1312 144
WIRE -1200 176 -1200 144
WIRE -1104 176 -1104 144
WIRE -992 176 -992 144
WIRE -896 176 -896 144
WIRE -672 176 -752 176
WIRE -448 176 -448 128
WIRE 576 192 576 160
WIRE 688 192 688 160
WIRE -672 208 -672 176
WIRE 320 224 320 160
WIRE 320 224 224 224
WIRE -1280 256 -1392 256
WIRE -752 256 -752 176
WIRE -752 256 -1280 256
WIRE 256 256 256 192
WIRE 256 256 192 256
WIRE 464 256 464 160
WIRE 464 256 256 256
WIRE -32 288 -80 288
WIRE 576 288 576 256
WIRE 688 288 688 272
WIRE -672 304 -672 288
WIRE -672 304 -752 304
WIRE -560 304 -672 304
WIRE -816 320 -944 320
WIRE -672 320 -672 304
WIRE -448 320 -448 256
WIRE 160 320 160 288
WIRE 160 320 128 320
WIRE -1392 352 -1392 256
WIRE -1376 352 -1392 352
WIRE -1280 368 -1280 256
WIRE -1280 368 -1312 368
WIRE -560 368 -560 304
WIRE -560 368 -608 368
WIRE -512 368 -560 368
WIRE 160 368 160 320
WIRE -1536 384 -1536 352
WIRE -1376 384 -1536 384
WIRE 96 384 96 352
WIRE -816 400 -816 320
WIRE -816 400 -832 400
WIRE -1536 416 -1536 384
WIRE -944 416 -944 320
WIRE -944 416 -1040 416
WIRE -896 416 -944 416
WIRE -752 432 -752 304
WIRE -752 432 -832 432
WIRE -208 480 -256 480
WIRE -80 480 -80 288
WIRE -80 480 -128 480
WIRE 144 480 -80 480
WIRE 464 480 464 256
WIRE 464 480 224 480
WIRE -672 544 -672 416
WIRE -448 544 -448 416
WIRE -80 560 -80 480
WIRE 160 560 -80 560
WIRE 464 560 464 480
WIRE 464 560 224 560
FLAG -1312 176 0
FLAG -1312 32 5+
FLAG -1200 176 5-
FLAG -1200 32 0
FLAG 160 368 10-
FLAG 96 -96 10+
FLAG 96 384 0
FLAG -64 64 10+
FLAG -1440 32 vlim
FLAG -1440 176 0
FLAG 160 -48 vlim
FLAG 224 -96 vlim
FLAG -896 176 0
FLAG 576 288 0
FLAG 688 288 0
FLAG -208 128 0
FLAG -736 64 5-
FLAG -736 -80 5+
FLAG -672 -768 5+
FLAG -448 -768 5+
FLAG -448 624 5-
FLAG -672 624 5-
FLAG -816 -464 5+
FLAG -816 -400 5-
FLAG -848 384 5+
FLAG -848 448 5-
FLAG -1008 -432 lim+
FLAG -1040 416 lim-
FLAG -1536 496 lim-
FLAG -1536 272 lim+
FLAG -1424 -160 lim-
FLAG -1424 -384 lim+
FLAG -1248 -320 5+
FLAG -1360 336 5+
FLAG -1360 400 5-
FLAG -1248 -256 5-
FLAG -1216 -256 5+
FLAG -848 -400 5+
FLAG -1328 400 5+
FLAG -880 448 5+
FLAG -1104 176 0
FLAG -1104 32 10+
FLAG -992 176 10-
FLAG -992 32 0
FLAG -256 480 0
SYMBOL Opamps\\LT1970 128 160 R0
SYMATTR InstName U1
SYMBOL res 448 144 R90
WINDOW 0 0 56 VBottom 2
WINDOW 3 32 56 VTop 2
SYMATTR InstName R1
SYMATTR Value 1
SYMBOL voltage -1312 48 R0
WINDOW 123 0 0 Left 2
WINDOW 39 0 0 Left 2
SYMATTR InstName V1
SYMATTR Value 5
SYMBOL voltage -1200 48 R0
WINDOW 123 0 0 Left 2
WINDOW 39 0 0 Left 2
SYMATTR InstName V2
SYMATTR Value 5
SYMBOL voltage -1440 48 R0
WINDOW 123 0 0 Left 2
WINDOW 39 0 0 Left 2
SYMATTR InstName V3
SYMATTR Value 5
SYMBOL res 208 -80 R0
SYMATTR InstName R2
SYMATTR Value 1k
SYMBOL voltage -896 48 R0
WINDOW 3 24 96 Invisible 2
WINDOW 123 0 0 Left 2
WINDOW 39 24 44 Left 2
SYMATTR Value PULSE(0 .75 10m 10u 10u 100m 200m)
SYMATTR InstName V4
SYMBOL cap 560 192 R0
SYMATTR InstName C1
SYMATTR Value 10µ
SYMBOL current 688 192 R0
WINDOW 3 24 80 Invisible 2
WINDOW 123 0 0 Left 2
WINDOW 39 0 0 Left 2
SYMATTR Value PULSE(0 20m 80m 100u 100u 50m 200m)
SYMATTR InstName I1
SYMBOL res 240 464 R90
WINDOW 0 0 56 VBottom 2
WINDOW 3 32 56 VTop 2
SYMATTR InstName R3
SYMATTR Value 30k
SYMBOL cap 224 544 R90
WINDOW 0 0 32 VBottom 2
WINDOW 3 32 32 VTop 2
SYMATTR InstName C2
SYMATTR Value 100p
SYMBOL cap -224 32 R0
SYMATTR InstName C3
SYMATTR Value 50n
SYMBOL Opamps\\LT1002 -736 -64 R0
SYMATTR InstName U2
SYMBOL pnp -608 -432 R180
SYMATTR InstName Q1
SYMATTR Value 2N3906
SYMBOL pnp -512 -432 M180
SYMATTR InstName Q2
SYMATTR Value 2N3906
SYMBOL res -464 -752 R0
SYMATTR InstName R4
SYMATTR Value 1k
SYMBOL res -688 -752 R0
SYMATTR InstName R5
SYMATTR Value 1k
SYMBOL res -688 -416 R0
SYMATTR InstName R6
SYMATTR Value {rProg}
SYMBOL npn -512 320 R0
SYMATTR InstName Q3
SYMATTR Value 2N3904
SYMBOL npn -608 320 M0
SYMATTR InstName Q4
SYMATTR Value 2N3904
SYMBOL res -688 192 R0
SYMATTR InstName R7
SYMATTR Value {rProg}
SYMBOL res -688 528 R0
SYMATTR InstName R8
SYMATTR Value 1k
SYMBOL res -464 528 R0
SYMATTR InstName R9
SYMATTR Value 1k
SYMBOL res 576 144 R90
WINDOW 0 0 56 VBottom 2
WINDOW 3 32 56 VTop 2
SYMATTR InstName R10
SYMATTR Value 1µ
SYMBOL voltage -896 -32 R0
WINDOW 3 24 96 Invisible 2
WINDOW 123 0 0 Left 2
SYMATTR Value 0
SYMATTR SpiceLine Rser=1k
SYMATTR InstName V6
SYMBOL res -1552 256 R0
SYMATTR InstName R11
SYMATTR Value {rLow}
SYMBOL res -1552 400 R0
SYMATTR InstName R12
SYMATTR Value {rHigh}
SYMBOL res -1440 -400 R0
SYMATTR InstName R13
SYMATTR Value {rHigh}
SYMBOL res -1440 -256 R0
SYMATTR InstName R14
SYMATTR Value {rLow}
SYMBOL res -464 -368 R0
SYMATTR InstName R15
SYMATTR Value 1µ
SYMBOL res -464 160 R0
SYMATTR InstName R16
SYMATTR Value 1µ
SYMBOL Opamps\\LT1218 -1232 -288 R0
SYMATTR InstName U7
SYMBOL Opamps\\LT1218 -832 -432 M0
SYMATTR InstName U3
SYMBOL Opamps\\LT1218 -864 416 M0
SYMATTR InstName U4
SYMBOL Opamps\\LT1218 -1344 368 R0
SYMATTR InstName U5
SYMBOL voltage -1104 48 R0
WINDOW 123 0 0 Left 2
WINDOW 39 0 0 Left 2
SYMATTR InstName V5
SYMATTR Value 10
SYMBOL voltage -992 48 R0
WINDOW 123 0 0 Left 2
WINDOW 39 0 0 Left 2
SYMATTR InstName V7
SYMATTR Value 10
SYMBOL res -112 464 R90
WINDOW 0 0 56 VBottom 2
WINDOW 3 32 56 VTop 2
SYMATTR InstName R17
SYMATTR Value 10k
SYMBOL diode -384 -96 R0
SYMATTR InstName D1
SYMBOL diode -544 -96 R0
SYMATTR InstName D2
SYMBOL diode -544 32 R0
SYMATTR InstName D3
SYMBOL diode -384 32 R0
SYMATTR InstName D4
TEXT -176 -560 Left 2 !.tran 0 200m 0 10u
TEXT -208 -448 Left 2 !.step param rHigh list 78 156 19812 19890\n.step param rProg list 20078 20156 39812 39890\n;.param rHigh 20k/256*255\n;.param rProg 30k\n.param rLow 20k - rHigh
TEXT -1104 -352 Left 2 ;Rail to rail op-amps
TEXT -1256 -184 Left 2 ;AD5260 for pots
TEXT -776 -240 Left 2 ;Course ramp up adjust
TEXT -1456 -80 Left 2 ;Fine ramp up adjust
TEXT -808 144 Left 2 ;Course ramp down adjust
TEXT -1624 576 Left 2 ;Fine ramp down adjust
RECTANGLE Normal -528 -256 -720 -400 2
RECTANGLE Normal -1296 -96 -1472 -464 2
RECTANGLE Normal -544 160 -704 288 2
RECTANGLE Normal -1408 560 -1568 208 2
